# NOMAD ENTRY ID: 0IMUyNz51xhzqb5VGemuSmhZUORK
data_ZnC5HO5
_cell_length_a       25.9029
_cell_length_b       25.9029
_cell_length_c       6.86278
_cell_angle_alpha    90
_cell_angle_beta     90
_cell_angle_gamma    120

_symmetry_space_group_name_H-M    "P 1"
_symmetry_int_tables_number       1

loop_
  _symmetry_equiv_pos_as_xyz
  'x, y, z'

loop_
  _atom_site_label
  _atom_site_occupancy
  _atom_site_fract_x
  _atom_site_fract_y
  _atom_site_fract_z
  _atom_site_thermal_displace_type
  _atom_site_B_iso_or_equiv
  _atom_site_type_symbol
  C1       1.0000 0.01801  0.50195  0.80968  Biso   1.000  C
  C2       1.0000 0.00587  0.45195  0.92188  Biso   1.000  C
  O1       1.0000 0.01243  0.40883  0.84338  Biso   1.000  O
  Zn1      1.0000 0.04563  0.35591  0.94956  Biso   1.000  Zn
  O2       1.0000 0.97227  0.35442  0.17831  Biso   1.000  O
  Zn2      1.0000 0.97695  0.28771  0.28289  Biso   1.000  Zn
  O3       1.0000 0.99880  0.20799  0.44721  Biso   1.000  O
  C3       1.0000 0.96550  0.16040  0.49250  Biso   1.000  C
  O4       1.0000 0.93270  0.11255  0.53782  Biso   1.000  O
  O5       1.0000 0.06307  0.32091  0.17672  Biso   1.000  O
  C4       1.0000 0.11274  0.32746  0.25522  Biso   1.000  C
  C5       1.0000 0.15060  0.31532  0.14303  Biso   1.000  C
  C6       1.0000 0.20323  0.32053  0.21603  Biso   1.000  C
  C7       1.0000 0.22058  0.33919  0.41148  Biso   1.000  C
  O6       1.0000 0.27026  0.34576  0.48998  Biso   1.000  O
  Zn3      1.0000 0.28771  0.31075  0.71712  Biso   1.000  Zn
  O7       1.0000 0.20800  0.20919  0.55271  Biso   1.000  O
  C8       1.0000 0.16041  0.19490  0.50738  Biso   1.000  C
  O8       1.0000 0.11253  0.17971  0.46200  Biso   1.000  O
  Zn4      1.0000 0.35591  0.31029  0.05046  Biso   1.000  Zn
  O9       1.0000 0.40883  0.39641  0.15664  Biso   1.000  O
  Zn5      1.0000 0.35638  0.37896  0.38379  Biso   1.000  Zn
  O10      1.0000 0.33448  0.45864  0.21939  Biso   1.000  O
  C9       1.0000 0.36776  0.50624  0.17408  Biso   1.000  C
  O11      1.0000 0.40036  0.55414  0.12869  Biso   1.000  O
  O12      1.0000 0.40428  0.44012  0.57225  Biso   1.000  O
  C10      1.0000 0.39983  0.42597  0.74952  Biso   1.000  C
  O13      1.0000 0.35442  0.38214  0.82169  Biso   1.000  O
  C11      1.0000 0.45063  0.46344  0.88268  Biso   1.000  C
  C12      1.0000 0.45194  0.44608  0.07813  Biso   1.000  C
  C13      1.0000 0.50195  0.48394  0.19032  Biso   1.000  C
  H1       1.0000 0.50364  0.47161  0.34053  Biso   1.000  H
  C14      1.0000 0.54937  0.53656  0.11732  Biso   1.000  C
  C15      1.0000 0.60017  0.57403  0.25048  Biso   1.000  C
  O14      1.0000 0.59572  0.55988  0.42775  Biso   1.000  O
  Zn6      1.0000 0.64362  0.62104  0.61621  Biso   1.000  Zn
  O15      1.0000 0.66552  0.54136  0.78061  Biso   1.000  O
  C16      1.0000 0.63224  0.49376  0.82592  Biso   1.000  C
  O16      1.0000 0.59964  0.44586  0.87131  Biso   1.000  O
  Zn7      1.0000 0.64409  0.68971  0.94954  Biso   1.000  Zn
  O17      1.0000 0.54251  0.66775  0.11408  Biso   1.000  O
  C17      1.0000 0.52817  0.70097  0.16003  Biso   1.000  C
  O18      1.0000 0.51292  0.73356  0.20597  Biso   1.000  O
  O19      1.0000 0.64558  0.61786  0.17831  Biso   1.000  O
  Zn8      1.0000 0.71229  0.68925  0.28288  Biso   1.000  Zn
  O20      1.0000 0.79200  0.79081  0.44729  Biso   1.000  O
  C18      1.0000 0.83959  0.80510  0.49262  Biso   1.000  C
  O21      1.0000 0.88747  0.82029  0.53800  Biso   1.000  O
  O22      1.0000 0.67910  0.74217  0.17672  Biso   1.000  O
  C19      1.0000 0.67253  0.78528  0.25521  Biso   1.000  C
  C20      1.0000 0.68468  0.83528  0.14301  Biso   1.000  C
  C21      1.0000 0.67947  0.88270  0.21601  Biso   1.000  C
  C22      1.0000 0.66080  0.88139  0.41146  Biso   1.000  C
  O23      1.0000 0.65424  0.92450  0.48996  Biso   1.000  O
  Zn9      1.0000 0.62104  0.97742  0.38380  Biso   1.000  Zn
  O24      1.0000 0.54132  0.87585  0.21945  Biso   1.000  O
  C23      1.0000 0.49373  0.86158  0.17420  Biso   1.000  C
  O25      1.0000 0.44586  0.84644  0.12886  Biso   1.000  O
  Zn10     1.0000 0.68925  0.97696  0.71712  Biso   1.000  Zn
  O26      1.0000 0.79082  0.99893  0.55249  Biso   1.000  O
  C24      1.0000 0.80516  0.96571  0.50658  Biso   1.000  C
  O27      1.0000 0.82042  0.93312  0.46066  Biso   1.000  O
  O28      1.0000 0.74216  0.06307  0.82331  Biso   1.000  O
  Zn11     1.0000 0.68970  0.04562  0.05046  Biso   1.000  Zn
  O29      1.0000 0.60360  0.01243  0.15663  Biso   1.000  O
  C25      1.0000 0.55392  0.00587  0.07813  Biso   1.000  C
  C26      1.0000 0.51606  0.01802  0.19032  Biso   1.000  C
  C27      1.0000 0.46344  0.01280  0.11732  Biso   1.000  C
  C28      1.0000 0.42597  0.02614  0.25048  Biso   1.000  C
  O30      1.0000 0.38214  0.02772  0.17830  Biso   1.000  O
  Zn12     1.0000 0.31075  0.02304  0.28288  Biso   1.000  Zn
  O31      1.0000 0.20918  0.00107  0.44751  Biso   1.000  O
  C29      1.0000 0.19484  0.03429  0.49342  Biso   1.000  C
  O32      1.0000 0.17958  0.06688  0.53934  Biso   1.000  O
  O33      1.0000 0.25784  0.93693  0.17669  Biso   1.000  O
  C30      1.0000 0.21473  0.88725  0.25519  Biso   1.000  C
  C31      1.0000 0.16472  0.84939  0.14300  Biso   1.000  C
  C32      1.0000 0.11731  0.79677  0.21600  Biso   1.000  C
  C33      1.0000 0.06650  0.75930  0.08283  Biso   1.000  C
  O34      1.0000 0.02109  0.71547  0.15501  Biso   1.000  O
  Zn13     1.0000 0.02259  0.64363  0.38376  Biso   1.000  Zn
  Zn14     1.0000 0.02305  0.71229  0.71711  Biso   1.000  Zn
  O35      1.0000 0.00120  0.79201  0.55279  Biso   1.000  O
  C34      1.0000 0.03450  0.83960  0.50750  Biso   1.000  C
  O36      1.0000 0.06730  0.88745  0.46218  Biso   1.000  O
  Zn15     1.0000 0.95437  0.64409  0.05044  Biso   1.000  Zn
  O37      1.0000 0.98757  0.59117  0.15662  Biso   1.000  O
  C35      1.0000 0.99413  0.54805  0.07812  Biso   1.000  C
  C36      1.0000 0.98199  0.49805  0.19032  Biso   1.000  C
  H2       1.0000 0.96797  0.49636  0.34053  Biso   1.000  H
  C37      1.0000 0.98721  0.45064  0.11733  Biso   1.000  C
  C38      1.0000 0.97387  0.39984  0.25050  Biso   1.000  C
  O38      1.0000 0.96417  0.40429  0.42777  Biso   1.000  O
  Zn16     1.0000 0.97741  0.35637  0.61624  Biso   1.000  Zn
  O39      1.0000 0.87585  0.33445  0.78084  Biso   1.000  O
  C39      1.0000 0.86153  0.36768  0.82670  Biso   1.000  C
  O40      1.0000 0.84637  0.40036  0.87257  Biso   1.000  O
  O41      1.0000 0.04880  0.36104  0.51167  Biso   1.000  O
  C40      1.0000 0.09263  0.35946  0.58384  Biso   1.000  C
  O42      1.0000 0.10679  0.36917  0.76110  Biso   1.000  O
  C41      1.0000 0.13010  0.34613  0.45067  Biso   1.000  C
  C42      1.0000 0.18272  0.35134  0.52367  Biso   1.000  C
  H3       1.0000 0.19505  0.36536  0.67388  Biso   1.000  H
  O43      1.0000 0.92450  0.27027  0.51006  Biso   1.000  O
  C43      1.0000 0.88138  0.22059  0.58856  Biso   1.000  C
  C44      1.0000 0.83137  0.18273  0.47637  Biso   1.000  C
  C45      1.0000 0.78396  0.13010  0.54936  Biso   1.000  C
  C46      1.0000 0.73316  0.09264  0.41619  Biso   1.000  C
  O44      1.0000 0.73761  0.10678  0.23893  Biso   1.000  O
  O45      1.0000 0.68775  0.04881  0.48838  Biso   1.000  O
  C47      1.0000 0.78527  0.11275  0.74481  Biso   1.000  C
  C48      1.0000 0.83528  0.15061  0.85700  Biso   1.000  C
  C49      1.0000 0.88269  0.20323  0.78400  Biso   1.000  C
  C50      1.0000 0.93350  0.24070  0.91717  Biso   1.000  C
  O46      1.0000 0.97891  0.28453  0.84499  Biso   1.000  O
  O47      1.0000 0.92904  0.22655  0.09444  Biso   1.000  O
  H4       1.0000 0.83698  0.13828  0.00720  Biso   1.000  H
  H5       1.0000 0.82968  0.19506  0.32616  Biso   1.000  H
  C51      1.0000 0.01279  0.54936  0.88267  Biso   1.000  C
  C52      1.0000 0.02613  0.60016  0.74950  Biso   1.000  C
  O48      1.0000 0.03583  0.59571  0.57223  Biso   1.000  O
  O49      1.0000 0.02773  0.64558  0.82169  Biso   1.000  O
  O50      1.0000 0.93693  0.67909  0.82328  Biso   1.000  O
  C53      1.0000 0.88726  0.67254  0.74478  Biso   1.000  C
  C54      1.0000 0.84940  0.68468  0.85697  Biso   1.000  C
  C55      1.0000 0.79677  0.67947  0.78397  Biso   1.000  C
  C56      1.0000 0.75930  0.69281  0.91714  Biso   1.000  C
  O51      1.0000 0.71547  0.69439  0.84495  Biso   1.000  O
  O52      1.0000 0.77345  0.70250  0.09440  Biso   1.000  O
  C57      1.0000 0.77942  0.66081  0.58852  Biso   1.000  C
  O53      1.0000 0.72974  0.65424  0.51002  Biso   1.000  O
  C58      1.0000 0.81728  0.64866  0.47633  Biso   1.000  C
  H6       1.0000 0.80495  0.63464  0.32612  Biso   1.000  H
  C59      1.0000 0.86990  0.65387  0.54933  Biso   1.000  C
  C60      1.0000 0.90737  0.64054  0.41616  Biso   1.000  C
  O54      1.0000 0.89321  0.63083  0.23890  Biso   1.000  O
  O55      1.0000 0.95120  0.63896  0.48833  Biso   1.000  O
  H7       1.0000 0.86172  0.69871  0.00718  Biso   1.000  H
  O56      1.0000 0.87467  0.54253  0.88604  Biso   1.000  O
  C61      1.0000 0.82707  0.52824  0.84073  Biso   1.000  C
  O57      1.0000 0.77921  0.51313  0.79534  Biso   1.000  O
  O58      1.0000 0.07550  0.72973  0.48994  Biso   1.000  O
  C62      1.0000 0.11862  0.77941  0.41144  Biso   1.000  C
  C63      1.0000 0.16863  0.81727  0.52363  Biso   1.000  C
  H8       1.0000 0.17032  0.80494  0.67384  Biso   1.000  H
  C64      1.0000 0.21604  0.86990  0.45064  Biso   1.000  C
  C65      1.0000 0.26684  0.90736  0.58381  Biso   1.000  C
  O59      1.0000 0.26239  0.89322  0.76107  Biso   1.000  O
  Zn17     1.0000 0.31030  0.95438  0.94954  Biso   1.000  Zn
  O60      1.0000 0.30561  0.02109  0.84498  Biso   1.000  O
  Zn18     1.0000 0.37896  0.02258  0.61620  Biso   1.000  Zn
  O61      1.0000 0.45868  0.12415  0.78055  Biso   1.000  O
  C66      1.0000 0.50627  0.13842  0.82580  Biso   1.000  C
  O62      1.0000 0.55414  0.15356  0.87114  Biso   1.000  O
  O63      1.0000 0.39640  0.98757  0.84337  Biso   1.000  O
  C67      1.0000 0.44608  0.99413  0.92187  Biso   1.000  C
  C68      1.0000 0.48394  0.98198  0.80968  Biso   1.000  C
  H9       1.0000 0.47161  0.96796  0.65948  Biso   1.000  H
  C69      1.0000 0.53656  0.98720  0.88268  Biso   1.000  C
  C70      1.0000 0.57403  0.97386  0.74952  Biso   1.000  C
  O64      1.0000 0.55988  0.96417  0.57225  Biso   1.000  O
  O65      1.0000 0.61786  0.97228  0.82170  Biso   1.000  O
  O66      1.0000 0.34576  0.07550  0.51004  Biso   1.000  O
  C71      1.0000 0.33920  0.11861  0.58854  Biso   1.000  C
  C72      1.0000 0.35134  0.16862  0.47634  Biso   1.000  C
  C73      1.0000 0.34613  0.21603  0.54934  Biso   1.000  C
  C74      1.0000 0.32747  0.21472  0.74479  Biso   1.000  C
  O67      1.0000 0.32090  0.25783  0.82328  Biso   1.000  O
  C75      1.0000 0.31532  0.16472  0.85699  Biso   1.000  C
  C76      1.0000 0.32053  0.11730  0.78399  Biso   1.000  C
  C77      1.0000 0.30719  0.06650  0.91716  Biso   1.000  C
  O68      1.0000 0.29750  0.07095  0.09442  Biso   1.000  O
  H10      1.0000 0.30130  0.16302  0.00719  Biso   1.000  H
  C78      1.0000 0.35947  0.26684  0.41617  Biso   1.000  C
  O69      1.0000 0.36916  0.26238  0.23891  Biso   1.000  O
  O70      1.0000 0.36106  0.31225  0.48836  Biso   1.000  O
  H11      1.0000 0.36536  0.17031  0.32614  Biso   1.000  H
  O71      1.0000 0.44012  0.03583  0.42775  Biso   1.000  O
  O72      1.0000 0.31225  0.95119  0.51162  Biso   1.000  O
  O73      1.0000 0.33218  0.87469  0.11400  Biso   1.000  O
  C79      1.0000 0.29889  0.82710  0.15936  Biso   1.000  C
  O74      1.0000 0.26621  0.77923  0.20477  Biso   1.000  O
  O75      1.0000 0.07096  0.77345  0.90556  Biso   1.000  O
  O76      1.0000 0.12415  0.66555  0.21916  Biso   1.000  O
  C80      1.0000 0.13847  0.63232  0.17330  Biso   1.000  C
  O77      1.0000 0.15363  0.59964  0.12743  Biso   1.000  O
  H12      1.0000 0.16302  0.86172  0.99280  Biso   1.000  H
  H13      1.0000 0.52839  0.03204  0.34052  Biso   1.000  H
  O78      1.0000 0.69439  0.97891  0.15502  Biso   1.000  O
  C81      1.0000 0.69281  0.93350  0.08284  Biso   1.000  C
  O79      1.0000 0.70250  0.92905  0.90558  Biso   1.000  O
  O80      1.0000 0.66782  0.12531  0.88600  Biso   1.000  O
  C82      1.0000 0.70111  0.17290  0.84064  Biso   1.000  C
  O81      1.0000 0.73379  0.22077  0.79523  Biso   1.000  O
  C83      1.0000 0.64866  0.83138  0.52366  Biso   1.000  C
  H14      1.0000 0.63464  0.82969  0.67386  Biso   1.000  H
  C84      1.0000 0.65387  0.78397  0.45066  Biso   1.000  C
  C85      1.0000 0.64053  0.73316  0.58383  Biso   1.000  C
  O82      1.0000 0.63084  0.73762  0.76109  Biso   1.000  O
  O83      1.0000 0.63894  0.68775  0.51164  Biso   1.000  O
  H15      1.0000 0.69870  0.83698  0.99281  Biso   1.000  H
  O84      1.0000 0.59117  0.60359  0.84336  Biso   1.000  O
  C86      1.0000 0.54806  0.55392  0.92187  Biso   1.000  C
  C87      1.0000 0.49805  0.51606  0.80968  Biso   1.000  C
  H16      1.0000 0.49636  0.52839  0.65947  Biso   1.000  H
  O85      1.0000 0.28453  0.30561  0.15505  Biso   1.000  O
  C88      1.0000 0.24070  0.30719  0.08286  Biso   1.000  C
  O86      1.0000 0.22655  0.29750  0.90560  Biso   1.000  O
  O87      1.0000 0.45749  0.33225  0.88592  Biso   1.000  O
  C89      1.0000 0.47183  0.29903  0.83997  Biso   1.000  C
  O88      1.0000 0.48708  0.26644  0.79403  Biso   1.000  O
  H17      1.0000 0.13828  0.30129  0.99282  Biso   1.000  H
  O89      1.0000 0.12533  0.45747  0.11396  Biso   1.000  O
  C90      1.0000 0.17293  0.47176  0.15927  Biso   1.000  C
  O90      1.0000 0.22079  0.48687  0.20466  Biso   1.000  O
  H18      1.0000 0.03203  0.50364  0.65947  Biso   1.000  H
